
     RDKit          3D

 41 42  0  0  0  0  0  0  0  0999 V2000
   34.2391   32.0875   58.8352 C   0  0  0  0  0  0  0  0  0  0  0  0
   33.0677   32.6479   58.2554 O   0  0  0  0  0  0  0  0  0  0  0  0
   32.0970   31.7728   57.8382 C   0  0  0  0  0  0  0  0  0  0  0  0
   32.3438   30.4217   57.5773 C   0  0  0  0  0  0  0  0  0  0  0  0
   31.3021   29.5673   57.2093 C   0  0  0  0  0  0  0  0  0  0  0  0
   29.9890   30.0439   57.0846 C   0  0  0  0  0  0  0  0  0  0  0  0
   28.8760   29.0782   56.7267 C   0  0  0  0  0  0  0  0  0  0  0  0
   28.5042   28.1694   57.8198 N   0  0  0  0  0  0  0  0  0  0  0  0
   29.5832   27.2273   58.1784 C   0  0  0  0  0  0  0  0  0  0  0  0
   29.1059   26.0332   59.0464 C   0  0  0  0  0  0  0  0  0  0  0  0
   27.8197   26.2910   59.7150 N   0  0  0  0  0  0  0  0  0  0  0  0
   26.7950   26.5435   58.6817 C   0  0  0  0  0  0  0  0  0  0  0  0
   27.2709   27.4314   57.5028 C   0  0  0  0  0  0  0  0  0  0  0  0
   29.7434   31.4132   57.2971 C   0  0  0  0  0  0  0  0  0  0  0  0
   28.4372   31.8262   57.1758 O   0  0  0  0  0  0  0  0  0  0  0  0
   28.2340   33.1979   57.5023 C   0  0  0  0  0  0  0  0  0  0  0  0
   30.7931   32.2798   57.6672 C   0  0  0  0  0  0  0  0  0  0  0  0
   30.4641   33.5857   57.9518 O   0  0  0  0  0  0  0  0  0  0  0  0
   31.5843   34.4080   58.2714 C   0  0  0  0  0  0  0  0  0  0  0  0
   34.0051   31.2136   59.4523 H   0  0  0  0  0  0  0  0  0  0  0  0
   34.6836   32.8455   59.4871 H   0  0  0  0  0  0  0  0  0  0  0  0
   34.9749   31.8412   58.0632 H   0  0  0  0  0  0  0  0  0  0  0  0
   33.3390   29.9980   57.6626 H   0  0  0  0  0  0  0  0  0  0  0  0
   31.5195   28.5158   57.0344 H   0  0  0  0  0  0  0  0  0  0  0  0
   29.1540   28.5088   55.8289 H   0  0  0  0  0  0  0  0  0  0  0  0
   28.0063   29.6764   56.4233 H   0  0  0  0  0  0  0  0  0  0  0  0
   30.0683   26.8206   57.2817 H   0  0  0  0  0  0  0  0  0  0  0  0
   30.3430   27.7747   58.7488 H   0  0  0  0  0  0  0  0  0  0  0  0
   29.8636   25.8102   59.8057 H   0  0  0  0  0  0  0  0  0  0  0  0
   29.0113   25.1348   58.4234 H   0  0  0  0  0  0  0  0  0  0  0  0
   27.9396   27.1838   60.2043 H   0  0  0  0  0  0  0  0  0  0  0  0
   26.4310   25.5856   58.2914 H   0  0  0  0  0  0  0  0  0  0  0  0
   25.9417   27.0245   59.1743 H   0  0  0  0  0  0  0  0  0  0  0  0
   27.4326   26.7977   56.6205 H   0  0  0  0  0  0  0  0  0  0  0  0
   26.4629   28.1314   57.2570 H   0  0  0  0  0  0  0  0  0  0  0  0
   27.1590   33.3960   57.4462 H   0  0  0  0  0  0  0  0  0  0  0  0
   28.5508   33.3916   58.5310 H   0  0  0  0  0  0  0  0  0  0  0  0
   28.7341   33.8814   56.8063 H   0  0  0  0  0  0  0  0  0  0  0  0
   31.2721   35.4508   58.1566 H   0  0  0  0  0  0  0  0  0  0  0  0
   31.8717   34.2651   59.3172 H   0  0  0  0  0  0  0  0  0  0  0  0
   32.4395   34.2435   57.6058 H   0  0  0  0  0  0  0  0  0  0  0  0
  1  2  1  0
  2  3  1  0
  3  4  2  0
  4  5  1  0
  5  6  2  0
  6  7  1  0
  7  8  1  0
  8  9  1  0
  9 10  1  0
 10 11  1  0
 11 12  1  0
 12 13  1  0
  8 13  1  0
  6 14  1  0
 14 15  1  0
 15 16  1  0
 14 17  2  0
  3 17  1  0
 17 18  1  0
 18 19  1  0
  1 20  1  0
  1 21  1  0
  1 22  1  0
  4 23  1  0
  5 24  1  0
  7 25  1  0
  7 26  1  0
  9 27  1  0
  9 28  1  0
 10 29  1  0
 10 30  1  0
 11 31  1  0
 12 32  1  0
 12 33  1  0
 13 34  1  0
 13 35  1  0
 16 36  1  0
 16 37  1  0
 16 38  1  0
 19 39  1  0
 19 40  1  0
 19 41  1  0
M  END
$$$$ 

     RDKit          3D

 24 24  0  0  0  0  0  0  0  0999 V2000
   20.6811   20.6465   56.0817 C   0  0  0  0  0  0  0  0  0  0  0  0
   20.1841   20.6281   57.5228 C   0  0  0  0  0  0  0  0  0  0  0  0
   21.2865   20.5993   58.6226 C   0  0  0  0  0  0  0  0  0  0  0  0
   22.0567   19.2655   58.5578 C   0  0  0  0  0  0  0  0  0  0  0  0
   20.6293   20.7080   60.0145 C   0  0  0  0  0  0  0  0  0  0  0  0
   20.0339   22.0730   60.2752 C   0  0  0  0  0  0  0  0  0  0  0  0
   19.0624   22.2358   61.0083 O   0  0  0  0  0  0  0  0  0  0  0  0
   20.6611   23.1390   59.6853 N   0  0  0  0  0  0  0  0  0  0  0  0
   21.6556   23.1028   58.7432 C   0  0  0  0  0  0  0  0  0  0  0  0
   22.0295   24.1240   58.1738 O   0  0  0  0  0  0  0  0  0  0  0  0
   22.2917   21.7565   58.4925 C   0  0  0  0  0  0  0  0  0  0  0  0
   20.2167   19.8276   55.5217 H   0  0  0  0  0  0  0  0  0  0  0  0
   21.7639   20.5084   56.0228 H   0  0  0  0  0  0  0  0  0  0  0  0
   20.4170   21.5782   55.5743 H   0  0  0  0  0  0  0  0  0  0  0  0
   19.5372   19.7493   57.6447 H   0  0  0  0  0  0  0  0  0  0  0  0
   19.5317   21.4989   57.6589 H   0  0  0  0  0  0  0  0  0  0  0  0
   22.7931   19.1933   59.3667 H   0  0  0  0  0  0  0  0  0  0  0  0
   21.3766   18.4118   58.6535 H   0  0  0  0  0  0  0  0  0  0  0  0
   22.6046   19.1594   57.6160 H   0  0  0  0  0  0  0  0  0  0  0  0
   21.3617   20.5228   60.8103 H   0  0  0  0  0  0  0  0  0  0  0  0
   19.8334   19.9604   60.1176 H   0  0  0  0  0  0  0  0  0  0  0  0
   20.2405   24.0434   59.8488 H   0  0  0  0  0  0  0  0  0  0  0  0
   23.1036   21.6482   59.2234 H   0  0  0  0  0  0  0  0  0  0  0  0
   22.7556   21.7680   57.5007 H   0  0  0  0  0  0  0  0  0  0  0  0
  1  2  1  0
  2  3  1  0
  3  4  1  0
  3  5  1  0
  5  6  1  0
  6  7  2  0
  6  8  1  0
  8  9  1  0
  9 10  2  0
  9 11  1  0
  3 11  1  0
  1 12  1  0
  1 13  1  0
  1 14  1  0
  2 15  1  0
  2 16  1  0
  4 17  1  0
  4 18  1  0
  4 19  1  0
  5 20  1  0
  5 21  1  0
  8 22  1  0
 11 23  1  0
 11 24  1  0
M  END
$$$$ 

     RDKit          3D

 33 34  0  0  0  0  0  0  0  0999 V2000
   20.8247   21.7793   60.8295 O   0  0  0  0  0  0  0  0  0  0  0  0
   21.4777   21.2919   59.7580 C   0  0  0  0  0  0  0  0  0  0  0  0
   22.4399   20.5564   59.8959 O   0  0  0  0  0  0  0  0  0  0  0  0
   20.8519   21.7321   58.4668 C   0  0  0  0  0  0  0  0  0  0  0  0
   21.4435   20.9753   57.2872 C   0  0  0  0  0  0  0  0  0  0  0  0
   20.3366   20.4457   56.4045 C   0  0  0  0  0  0  0  0  0  0  0  0
   20.1786   20.8905   55.2679 O   0  0  0  0  0  0  0  0  0  0  0  0
   19.4115   19.3903   56.9163 C   0  0  0  0  0  0  0  0  0  0  0  0
   18.4179   18.9095   56.0552 C   0  0  0  0  0  0  0  0  0  0  0  0
   17.5215   17.9247   56.4840 C   0  0  0  0  0  0  0  0  0  0  0  0
   17.5921   17.3987   57.7828 C   0  0  0  0  0  0  0  0  0  0  0  0
   18.5879   17.8953   58.6399 C   0  0  0  0  0  0  0  0  0  0  0  0
   19.4878   18.8822   58.2163 C   0  0  0  0  0  0  0  0  0  0  0  0
   16.6488   16.3632   58.2353 C   0  0  0  0  0  0  0  0  0  0  0  0
   15.2603   16.5605   58.1467 C   0  0  0  0  0  0  0  0  0  0  0  0
   14.3637   15.5782   58.5768 C   0  0  0  0  0  0  0  0  0  0  0  0
   14.8414   14.3803   59.1021 C   0  0  0  0  0  0  0  0  0  0  0  0
   16.2136   14.1643   59.1988 C   0  0  0  0  0  0  0  0  0  0  0  0
   17.1090   15.1477   58.7691 C   0  0  0  0  0  0  0  0  0  0  0  0
   20.4314   22.6211   60.5161 H   0  0  0  0  0  0  0  0  0  0  0  0
   19.7715   21.5639   58.5353 H   0  0  0  0  0  0  0  0  0  0  0  0
   21.0261   22.8067   58.3383 H   0  0  0  0  0  0  0  0  0  0  0  0
   22.0664   21.6422   56.6772 H   0  0  0  0  0  0  0  0  0  0  0  0
   22.1151   20.1708   57.6025 H   0  0  0  0  0  0  0  0  0  0  0  0
   18.3348   19.2967   55.0410 H   0  0  0  0  0  0  0  0  0  0  0  0
   16.7683   17.5619   55.7864 H   0  0  0  0  0  0  0  0  0  0  0  0
   18.6591   17.5229   59.6612 H   0  0  0  0  0  0  0  0  0  0  0  0
   20.2233   19.2387   58.9304 H   0  0  0  0  0  0  0  0  0  0  0  0
   14.8647   17.4933   57.7493 H   0  0  0  0  0  0  0  0  0  0  0  0
   13.2932   15.7512   58.5019 H   0  0  0  0  0  0  0  0  0  0  0  0
   14.1445   13.6158   59.4357 H   0  0  0  0  0  0  0  0  0  0  0  0
   16.5897   13.2288   59.6049 H   0  0  0  0  0  0  0  0  0  0  0  0
   18.1771   14.9522   58.8427 H   0  0  0  0  0  0  0  0  0  0  0  0
  1  2  1  0
  2  3  2  0
  2  4  1  0
  4  5  1  0
  5  6  1  0
  6  7  2  0
  6  8  1  0
  8  9  2  0
  9 10  1  0
 10 11  2  0
 11 12  1  0
 12 13  2  0
  8 13  1  0
 11 14  1  0
 14 15  2  0
 15 16  1  0
 16 17  2  0
 17 18  1  0
 18 19  2  0
 14 19  1  0
  1 20  1  0
  4 21  1  0
  4 22  1  0
  5 23  1  0
  5 24  1  0
  9 25  1  0
 10 26  1  0
 12 27  1  0
 13 28  1  0
 15 29  1  0
 16 30  1  0
 17 31  1  0
 18 32  1  0
 19 33  1  0
M  END
$$$$ 

     RDKit          3D

 26 27  0  0  0  0  0  0  0  0999 V2000
   39.0444   36.7924   60.6007 C   0  0  0  0  0  0  0  0  0  0  0  0
   39.2667   36.8355   59.0990 C   0  0  0  0  0  0  0  0  0  0  0  0
   38.7063   35.6834   58.4708 O   0  0  0  0  0  0  0  0  0  0  0  0
   37.3498   35.6026   58.3159 C   0  0  0  0  0  0  0  0  0  0  0  0
   36.4359   36.6298   58.5315 C   0  0  0  0  0  0  0  0  0  0  0  0
   35.0626   36.4166   58.3418 C   0  0  0  0  0  0  0  0  0  0  0  0
   34.5939   35.1535   57.9323 C   0  0  0  0  0  0  0  0  0  0  0  0
   33.2719   34.8115   57.7100 N   0  0  0  0  0  0  0  0  0  0  0  0
   33.2141   33.5466   57.3407 C   0  0  0  0  0  0  0  0  0  0  0  0
   34.6935   32.7037   57.2376 S   0  0  0  0  0  0  0  0  0  0  0  0
   35.5241   34.1322   57.7259 C   0  0  0  0  0  0  0  0  0  0  0  0
   36.9004   34.3378   57.9143 C   0  0  0  0  0  0  0  0  0  0  0  0
   31.7400   32.6444   56.9428 S   0  0  0  0  0  6  0  0  0  0  0  0
   31.7235   32.4784   55.5062 O   0  0  0  0  0  0  0  0  0  0  0  0
   31.6769   31.5209   57.8515 O   0  0  0  0  0  0  0  0  0  0  0  0
   30.3892   33.5895   57.3020 N   0  0  0  0  0  0  0  0  0  0  0  0
   37.9822   36.8693   60.8511 H   0  0  0  0  0  0  0  0  0  0  0  0
   39.3986   35.8416   61.0129 H   0  0  0  0  0  0  0  0  0  0  0  0
   39.5783   37.6096   61.0940 H   0  0  0  0  0  0  0  0  0  0  0  0
   38.9175   37.7718   58.6501 H   0  0  0  0  0  0  0  0  0  0  0  0
   40.3454   36.7968   58.9089 H   0  0  0  0  0  0  0  0  0  0  0  0
   36.7471   37.6164   58.8583 H   0  0  0  0  0  0  0  0  0  0  0  0
   34.3523   37.2203   58.5114 H   0  0  0  0  0  0  0  0  0  0  0  0
   37.6095   33.5312   57.7500 H   0  0  0  0  0  0  0  0  0  0  0  0
   29.8445   33.1344   58.0343 H   0  0  0  0  0  0  0  0  0  0  0  0
   29.8572   33.7554   56.4477 H   0  0  0  0  0  0  0  0  0  0  0  0
  1  2  1  0
  2  3  1  0
  3  4  1  0
  4  5  2  0
  5  6  1  0
  6  7  2  0
  7  8  1  0
  8  9  2  0
  9 10  1  0
 10 11  1  0
  7 11  1  0
 11 12  2  0
  4 12  1  0
  9 13  1  0
 13 14  2  0
 13 15  2  0
 13 16  1  0
  1 17  1  0
  1 18  1  0
  1 19  1  0
  2 20  1  0
  2 21  1  0
  5 22  1  0
  6 23  1  0
 12 24  1  0
 16 25  1  0
 16 26  1  0
M  END
$$$$ 

     RDKit          3D

 24 24  0  0  0  0  0  0  0  0999 V2000
   20.8636   18.2703   57.6640 O   0  0  0  0  0  0  0  0  0  0  0  0
   19.6759   18.9612   57.2790 C   0  0  0  0  0  0  0  0  0  0  0  0
   19.5248   20.2222   58.1275 C   0  0  0  0  0  0  0  0  0  0  0  0
   18.1826   20.7126   57.9519 O   0  0  0  0  0  0  0  0  0  0  0  0
   19.7862   19.9398   59.6083 C   0  0  0  0  0  0  0  0  0  0  0  0
   19.1345   18.7041   59.9290 O   0  0  0  0  0  0  0  0  0  0  0  0
   18.3512   18.1429   58.9592 C   0  0  0  0  0  0  0  0  0  0  0  0
   18.0944   18.6809   57.6967 C   0  0  0  0  0  0  0  0  0  0  0  0
   17.2676   17.9975   56.7976 C   0  0  0  0  0  0  0  0  0  0  0  0
   16.6985   16.7788   57.1612 C   0  0  0  0  0  0  0  0  0  0  0  0
   15.6834   15.9434   56.0523 Cl  0  0  0  0  0  0  0  0  0  0  0  0
   16.9480   16.2355   58.4179 C   0  0  0  0  0  0  0  0  0  0  0  0
   17.7734   16.9196   59.3134 C   0  0  0  0  0  0  0  0  0  0  0  0
   21.4011   18.9368   58.1380 H   0  0  0  0  0  0  0  0  0  0  0  0
   19.7728   19.2083   56.2167 H   0  0  0  0  0  0  0  0  0  0  0  0
   18.8260   18.2854   57.4106 H   0  0  0  0  0  0  0  0  0  0  0  0
   20.1873   21.0131   57.7577 H   0  0  0  0  0  0  0  0  0  0  0  0
   17.8915   21.0069   58.8370 H   0  0  0  0  0  0  0  0  0  0  0  0
   20.8646   19.8335   59.7772 H   0  0  0  0  0  0  0  0  0  0  0  0
   19.3753   20.7517   60.2193 H   0  0  0  0  0  0  0  0  0  0  0  0
   18.5166   19.6281   57.3780 H   0  0  0  0  0  0  0  0  0  0  0  0
   17.0719   18.4228   55.8165 H   0  0  0  0  0  0  0  0  0  0  0  0
   16.5072   15.2856   58.7076 H   0  0  0  0  0  0  0  0  0  0  0  0
   17.9683   16.4936   60.2949 H   0  0  0  0  0  0  0  0  0  0  0  0
  1  2  1  0
  2  3  1  0
  3  4  1  0
  3  5  1  0
  5  6  1  0
  6  7  1  0
  7  8  2  0
  8  9  1  0
  9 10  2  0
 10 11  1  0
 10 12  1  0
 12 13  2  0
  7 13  1  0
  1 14  1  0
  2 15  1  0
  2 16  1  0
  3 17  1  0
  4 18  1  0
  5 19  1  0
  5 20  1  0
  8 21  1  0
  9 22  1  0
 12 23  1  0
 13 24  1  0
M  END
$$$$ 

     RDKit          3D

 16 15  0  0  1  0  0  0  0  0999 V2000
   18.0875   17.6570   58.5276 N   0  0  0  0  0  0  0  0  0  0  0  0
   18.8938   18.8109   58.0456 C   0  0  1  0  0  0  0  0  0  0  0  0
   19.4302   19.5861   59.2415 C   0  0  0  0  0  0  0  0  0  0  0  0
   19.6178   21.0374   58.9110 C   0  0  0  0  0  0  0  0  0  0  0  0
   20.6771   21.6422   58.9218 O   0  0  0  0  0  0  0  0  0  0  0  0
   18.4677   21.6673   58.6118 O   0  0  0  0  0  0  0  0  0  0  0  0
   20.0555   18.2939   57.1904 C   0  0  0  0  0  0  0  0  0  0  0  0
   20.7448   17.3133   57.4269 O   0  0  0  0  0  0  0  0  0  0  0  0
   20.2746   19.0377   56.0903 O   0  0  0  0  0  0  0  0  0  0  0  0
   18.6658   16.8143   58.4570 H   0  0  0  0  0  0  0  0  0  0  0  0
   17.3318   17.4931   57.8590 H   0  0  0  0  0  0  0  0  0  0  0  0
   18.2445   19.4252   57.4121 H   0  0  0  0  0  0  0  0  0  0  0  0
   20.3981   19.1872   59.5701 H   0  0  0  0  0  0  0  0  0  0  0  0
   18.7505   19.5266   60.1002 H   0  0  0  0  0  0  0  0  0  0  0  0
   18.7236   22.3268   57.9325 H   0  0  0  0  0  0  0  0  0  0  0  0
   20.9613   19.6832   56.3626 H   0  0  0  0  0  0  0  0  0  0  0  0
  2  1  1  0
  2  3  1  0
  3  4  1  0
  4  5  2  0
  4  6  1  0
  2  7  1  0
  7  8  2  0
  7  9  1  0
  1 10  1  0
  1 11  1  0
  2 12  1  6
  3 13  1  0
  3 14  1  0
  6 15  1  0
  9 16  1  0
M  END
$$$$ 

     RDKit          3D

 23 21  0  0  1  0  0  0  0  0999 V2000
   20.0990   19.1669   57.3175 Cl  0  0  0  0  0  0  0  0  0  0  0  0
   21.3027   17.7801   59.0700 N   0  0  0  0  0  0  0  0  0  0  0  0
   20.7776   18.9409   58.3766 C   0  0  0  0  0  0  0  0  0  0  0  0
   20.3880   20.0090   59.3819 C   0  0  0  0  0  0  0  0  0  0  0  0
   19.9885   21.2738   58.6814 C   0  0  0  0  0  0  0  0  0  0  0  0
   21.1262   21.9714   57.9911 C   0  0  2  0  0  0  0  0  0  0  0  0
   22.2059   22.3197   58.8354 N   0  0  0  0  0  0  0  0  0  0  0  0
   20.5782   23.1955   57.3608 C   0  0  0  0  0  0  0  0  0  0  0  0
   20.6356   24.2815   57.9881 O   0  0  0  0  0  0  0  0  0  0  0  0
   20.0033   23.2030   56.1088 O   0  0  0  0  0  0  0  0  0  0  0  0
   19.2795   20.0533   56.6481 H   0  0  0  0  0  0  0  0  0  0  0  0
   20.6534   17.4615   59.7984 H   0  0  0  0  0  0  0  0  0  0  0  0
   21.5262   17.0136   58.4020 H   0  0  0  0  0  0  0  0  0  0  0  0
   21.5697   19.3437   57.7264 H   0  0  0  0  0  0  0  0  0  0  0  0
   19.9038   18.6096   57.7959 H   0  0  0  0  0  0  0  0  0  0  0  0
   19.4598   19.6215   59.8831 H   0  0  0  0  0  0  0  0  0  0  0  0
   21.1314   20.1325   60.1687 H   0  0  0  0  0  0  0  0  0  0  0  0
   19.4798   21.9840   59.3441 H   0  0  0  0  0  0  0  0  0  0  0  0
   19.2540   20.9841   57.8866 H   0  0  0  0  0  0  0  0  0  0  0  0
   21.4872   21.3196   57.1465 H   0  0  0  0  0  0  0  0  0  0  0  0
   23.1189   22.4648   58.3604 H   0  0  0  0  0  0  0  0  0  0  0  0
   22.2670   21.8133   59.7350 H   0  0  0  0  0  0  0  0  0  0  0  0
   19.6193   22.3449   55.7076 H   0  0  0  0  0  0  0  0  0  0  0  0
  2  3  1  0
  3  4  1  0
  4  5  1  0
  5  6  1  0
  6  7  1  0
  6  8  1  0
  8  9  2  0
  8 10  1  0
  1 11  1  0
  2 12  1  0
  2 13  1  0
  3 14  1  0
  3 15  1  0
  4 16  1  0
  4 17  1  0
  5 18  1  0
  5 19  1  0
  6 20  1  6
  7 21  1  0
  7 22  1  0
 10 23  1  0
M  END
